11

  C   0.000000   0.000000   0.000000
  O   1.400000   0.000000   0.000000
  N  -0.534091   1.508226   0.000000
  H  -0.574870   1.918728   1.126865
  H  -0.667803   1.885819  -1.131170
  C   0.052333  -0.526810  -1.446144
  C   0.566396  -1.978478  -1.446144
  O   1.961662  -1.980155  -1.561163
  N   0.620768  -2.525814  -2.948631
  H  -0.457532  -2.950921  -3.259358
  H   1.696611  -2.286687  -3.423374
